*Heading
** Job name: unnamed-711 Model name: Model-1
** Generated by: Abaqus/CAE 2020
*Preprint, echo=NO, model=NO, history=NO, contact=NO
**
** PARTS
**
*Part, name="main reentrant2d structure"
*Node
      1,   95.0723343,   23.3936272
      2,   95.0723343,   43.3936272
      3,    80.976944,   38.2633247
      4,    80.976944,   44.5248375
      5,    79.476944,   44.5248375
      6,    77.976944,   44.5248375
      7,    77.976944,   38.2633247
      8,   63.8815575,   43.3936272
      9,   49.7861671,   38.2633247
     10,   49.7861671,   44.5248375
     11,   48.2861671,   44.5248375
     12,   46.7861671,   44.5248375
     13,   46.7861671,   38.2633247
     14,   32.6907768,   43.3936272
     15,   18.5953884,   38.2633247
     16,   18.5953884,   44.5248375
     17,   17.0953884,   44.5248375
     18,   15.5953894,   44.5248375
     19,   15.5953894,   38.2633247
     20,   1.49999964,   43.3936272
** ... 4957 like lines cut
*Element, type=CPE4H
  1, 2568, 2389,  514,  515
  2,  513,  514, 2389, 2453
  3,  236, 2356, 2352,  235
  4,  558, 2356, 2353,  557
  5, 2353,  237,  238, 2354
  6, 2354,  238,  239, 2355
  7,  555, 2355, 2696, 2765
  8, 2754, 2793,  243,  244
  9, 2765, 2855,  554,  555
 10, 2855, 2793,   44,  554
 11, 2754, 2348,  552,  553
 12,  551,  552, 2348, 2351
 13, 2358,  248,  249, 2350
 14, 2360, 2358,  549,  550
 15,  250, 2818, 2350,  249
 16,  548, 2455, 2390,  547
 17, 2437, 2391,  261,  262
 18, 2375, 2392,  544,  545
 19,  262,  263, 2371, 2437
 20, 2233, 2371,  263,  264
** ... 3891 like lines cut
*Nset, nset=_PickedSet2, internal, generate
    1,  4977,     1
*Elset, elset=_PickedSet2, internal, generate
    1,  3911,     1
*Nset, nset=LD-Edge-1
   22,   23,   99,  374,  375,  376,  377,  378,  379,  380,  381,  382,  383,  384,  385,  386
  387,  388,  389,  390,  391,  392,  393,  394, 1106, 1107, 1108, 1109, 1110, 1111, 1112, 1113
 1114, 1115, 1116, 1117, 1118, 1119, 1120, 1121, 1122, 1123, 1124, 1125, 1126
*Elset, elset=LD-Edge-1
  185,  189,  192,  197,  405,  412,  506,  508,  509,  510,  511,  512,  513,  515,  826,  828
  833,  834,  835,  836,  837,  838,  983,  985,  990, 1088, 1096, 1098, 1099, 1103, 1105, 1106
 1108, 1379, 1566, 1569, 1571, 1573, 1802, 1803, 1806, 1808, 1811, 1812
*Nset, nset=LD-Edge-2
  135,  136,  199, 1369, 1370, 1371, 1372, 1373, 1374, 1375, 1376, 1377, 1378, 1379, 1380, 1381
 1382, 1383, 1384, 1385, 1386, 1387, 1388, 1389, 1860, 1861, 1862, 1863, 1864, 1865, 1866, 1867
 1868, 1869, 1870, 1871, 1872, 1873, 1874, 1875, 1876, 1877, 1878, 1879, 1880
*Elset, elset=LD-Edge-2
 2137, 2170, 2171, 2178, 2181, 2185, 2186, 2189, 2197, 2198, 2216, 2456, 2459, 2460, 2461, 2463
 2776, 2778, 2780, 2781, 2784, 2785, 3134, 3138, 3141, 3144, 3258, 3261, 3433, 3434, 3435, 3436
 3437, 3750, 3753, 3756, 3757, 3758, 3759, 3760, 3761, 3762, 3763, 3764
*Nset, nset=TD-Edge-1
   99,  100,  103,  104,  105,  109,  110,  111,  115,  116,  117,  181,  182,  183,  187,  188
  189,  193,  194,  195,  198,  199, 1127, 1147, 1148, 1187, 1188, 1227, 1228, 1758, 1759, 1798
 1799, 1838, 1839, 1859
*Elset, elset=TD-Edge-1
 1088, 1089, 1304, 1309, 1386, 1393, 1401, 1402, 1580, 1592, 1608, 1616, 1617, 1619, 2978, 2979
 2980, 3053, 3121, 3122, 3135, 3402, 3414, 3415, 3427, 3433, 3565, 3567
*Nset, nset=TD-Edge-2
    4,    5,    6,   10,   11,   12,   16,   17,   18,   21,   22,  136,  137,  140,  141,  142
  146,  147,  148,  152,  153,  154,  272,  273,  312,  313,  352,  353,  373, 1390, 1410, 1411
 1450, 1451, 1490, 1491
*Elset, elset=TD-Edge-2
   45,   46,  121,  122,  172,  185,  186,  470,  483,  484,  496,  498,  640,  893, 2211, 2213
 2217, 2275, 2281, 2306, 2456, 2471, 2486, 2499, 2500, 2592, 2594, 2597
*Nset, nset=Mid-Vertice-1
 88,
*Nset, nset=Mid-Vertice-2
 2,
** Section: section
*Solid Section, elset=_PickedSet2, material=material
1.,
*End Part
**  
**
** ASSEMBLY
**
*Assembly, name=Assembly
**  
*Instance, name="main reentrant2d structure-1", part="main reentrant2d structure"
*End Instance
**  
*Node
      1,           0.,   22.2624187,           0.
*Node
      2,   190.144669,   22.2624187,           0.
*Nset, nset=RP-1-set
 1,
*Nset, nset=RP-2-set
 2,
** Constraint: RP-1-eq-x
*Equation
2
"main reentrant2d structure-1".LD-Edge-1, 1, 1.
RP-1-set, 1, -1.
** Constraint: RP-1-eq-y
*Equation
2
"main reentrant2d structure-1".LD-Edge-1, 2, 1.
RP-1-set, 2, -1.
** Constraint: RP-2-eq-x
*Equation
2
"main reentrant2d structure-1".LD-Edge-2, 1, 1.
RP-2-set, 1, -1.
*End Assembly
** 
** MATERIALS
** 
*Material, name=material
*Density
 0.001122,
*Elastic
51., 0.48
** 
** BOUNDARY CONDITIONS
** 
** Name: Fixed-BC Type: Symmetry/Antisymmetry/Encastre
*Boundary
RP-1-set, ENCASTRE
** ----------------------------------------------------------------
** 
** STEP: Step-1
** 
*Step, name=Step-1, nlgeom=YES, inc=1000000
*Static
0.1, 1., 1e-10, 0.1
** 
** BOUNDARY CONDITIONS
** 
** Name: UM-Disp-BC Type: Displacement/Rotation
*Boundary
RP-2-set, 1, 1, 20.
** 
** OUTPUT REQUESTS
** 
*Restart, write, frequency=0
** 
** FIELD OUTPUT: F-Output-1
** 
*Output, field, variable=PRESELECT
** 
** HISTORY OUTPUT: H-Output-1
** 
*Output, history, variable=PRESELECT
*End Step
